/*--------------------------------*- C++ -*----------------------------------*\
| =========                 |                                                 |
| \\      /  F ield         | OpenFOAM: The Open Source CFD Toolbox           |
|  \\    /   O peration     | Version:  v2312                                 |
|   \\  /    A nd           | Website:  www.openfoam.com                      |
|    \\/     M anipulation  |                                                 |
\*---------------------------------------------------------------------------*/
FoamFile
{
    version     2.0;
    format      ascii;
    class       dictionary;
    object      blockMeshDict;
}
// * * * * * * * * * * * * * * * * * * * * * * * * * * * * * * * * * * * * * //

scale   0.1;

//----- POINTS ------\\

z0 0; z1 0.1;

x0 0; x1 5; x2 6; xc 6.5; x3 7; x4 8; x5 20; 

y0 0; yh 0.5; y1 1; y2 7;

//------- CELLS --------\\

Nz 1;

Ny1hE 15; Ny1hD 10; Ny2 70; NyCh 20;

Nx1 50; Nx2 40; Nx3h 20; Nx4 40; Nx5 80;

//------- GRINDING --------\\

GxE 5; GxD 0.2;

Gy2 5; Gy1 0.2;

//----------------------\\

vertices
(
    (  $x0  $y0  $z0  )   //#00
    (  $x1  $y0  $z0  )   //#01
    (  $x2  $y0  $z0  )   //#02
    (  $xc  $y0  $z0  )   //#03
    (  $x3  $y0  $z0  )   //#04
    (  $x4  $y0  $z0  )   //#05
    (  $x5  $y0  $z0  )   //#06
    
    (  $x0  $yh  $z0  )   //#07
    (  $x1  $yh  $z0  )   //#08
    (  $x2  $yh  $z0  )   //#09
    (  $xc  $yh  $z0  )   //#10
    (  $x3  $yh  $z0  )   //#11
    (  $x4  $yh  $z0  )   //#12
    (  $x5  $yh  $z0  )   //#13
    
    (  $x0  $y1  $z0  )   //#14
    (  $x1  $y1  $z0  )   //#15
    (  $x2  $y1  $z0  )   //#16
    (  $xc  $y1  $z0  )   //#17
    (  $x3  $y1  $z0  )   //#18
    (  $x4  $y1  $z0  )   //#19
    (  $x5  $y1  $z0  )   //#20
    
    (  $x0  $y2  $z0  )   //#21
    (  $x1  $y2  $z0  )   //#22
    (  $x2  $y2  $z0  )   //#23
    (  $xc  $y2  $z0  )   //#24
    (  $x3  $y2  $z0  )   //#25
    (  $x4  $y2  $z0  )   //#26
    (  $x5  $y2  $z0  )   //#27
    
    
    (  $x0  $y0  $z1  )   //#28
    (  $x1  $y0  $z1  )   //#29
    (  $x2  $y0  $z1  )   //#30
    (  $xc  $y0  $z1  )   //#31
    (  $x3  $y0  $z1  )   //#32
    (  $x4  $y0  $z1  )   //#33
    (  $x5  $y0  $z1  )   //#34
    
    (  $x0  $yh  $z1  )   //#35
    (  $x1  $yh  $z1  )   //#36
    (  $x2  $yh  $z1  )   //#37
    (  $xc  $yh  $z1  )   //#38
    (  $x3  $yh  $z1  )   //#39
    (  $x4  $yh  $z1  )   //#40
    (  $x5  $yh  $z1  )   //#41
    
    (  $x0  $y1  $z1  )   //#42
    (  $x1  $y1  $z1  )   //#43
    (  $x2  $y1  $z1  )   //#44
    (  $xc  $y1  $z1  )   //#45
    (  $x3  $y1  $z1  )   //#46
    (  $x4  $y1  $z1  )   //#47
    (  $x5  $y1  $z1  )   //#48
    
    (  $x0  $y2  $z1  )   //#49
    (  $x1  $y2  $z1  )   //#50
    (  $x2  $y2  $z1  )   //#51
    (  $xc  $y2  $z1  )   //#52
    (  $x3  $y2  $z1  )   //#53
    (  $x4  $y2  $z1  )   //#54
    (  $x5  $y2  $z1  )   //#55       
);

blocks
(   
    hex (  0  1  8  7 28 29 36 35 ) ( $Nx1 $Ny1hE $Nz ) simpleGrading ($GxD $Gy2 1)
    hex (  7  8 15 14 35 36 43 42 ) ( $Nx1 $Ny1hE $Nz ) simpleGrading ($GxD $Gy1 1)
    
    hex (  2  3 10  9 30 31 38 37 ) ( $Nx3h $NyCh $Nz ) simpleGrading ($GxE $Gy2 1)
    hex (  3  4 11 10 31 32 39 38 ) ( $Nx3h $NyCh $Nz ) simpleGrading ($GxD $Gy2 1)
    hex (  9 10 17 16 37 38 45 44 ) ( $Nx3h $NyCh $Nz ) simpleGrading ($GxE $Gy1 1) 
    hex ( 10 11 18 17 38 39 46 45 ) ( $Nx3h $NyCh $Nz ) simpleGrading ($GxD $Gy1 1)
    
    hex (  5  6 13 12 33 34 41 40 ) ( $Nx5 $Ny1hD $Nz ) edgeGrading ($GxE $Gy2 1)
    hex ( 12 13 20 19 40 41 48 47 ) ( $Nx5 $Ny1hD $Nz ) edgeGrading ($GxE $Gy1 1)
    
    hex ( 14 15 22 21 42 43 50 49 ) ( $Nx1 $Ny2 $Nz ) edgeGrading ($GxD 1 1 $GxD $Gy2 $Gy2 $Gy2 $Gy2 1 1 1 1)
    hex ( 15 16 23 22 43 44 51 50 ) ( $Nx2 $Ny2 $Nz ) edgeGrading ($GxD 1 1 $GxD $Gy2 $Gy2 $Gy2 $Gy2 1 1 1 1 )
    hex ( 16 17 24 23 44 45 52 51 ) ( $Nx3h $Ny2 $Nz ) edgeGrading ($GxE 1 1$GxE $Gy2 $Gy2 $Gy2 $Gy2 1 1 1 1)
    hex ( 17 18 25 24 45 46 53 52 ) ( $Nx3h $Ny2 $Nz ) edgeGrading ($GxD 1 1$GxD $Gy2 $Gy2 $Gy2 $Gy2 1 1 1 1)
    hex ( 18 19 26 25 46 47 54 53 ) ( $Nx4 $Ny2 $Nz ) edgeGrading ($GxE 1 1 $GxE $Gy2 $Gy2 $Gy2 $Gy2 1 1 1 1)
    hex ( 19 20 27 26 47 48 55 54 ) ( $Nx5 $Ny2 $Nz ) edgeGrading ($GxE 1 1$GxE $Gy2 $Gy2 $Gy2 $Gy2 1 1 1 1)
);

edges
(
);

boundary
(
	
    inlet
    {
        type patch;
        faces
        (
            (  0 28 35  7 )
            (  7 35 42 14 )
            ( 14 42 49 21 )
        );
    }
    
    outlet
    {
        type patch;
        faces
        (
            (  6 13 41 34 )
            ( 13 20 48 41 )
            ( 20 27 55 48 )
        );
    }
    
    topWall
    {
        type wall;
        faces
        (
            ( 21 49 50 22 )
            ( 22 50 51 23 )
            ( 23 51 52 24 )
            ( 24 52 53 25 )
            ( 25 53 54 26 )
            ( 26 54 55 27 )
        );
    }
    
    ground
    {
        type wall;
        faces
        (
            (  0  1 29 28 )
            (  2  3 31 30 )
            (  3  4 32 31 )
            (  5  6 34 33 )
            
            (  1 8 36 29 )
            (  8 15 43 36 )
            ( 15 16 44 43 )
            (  9 37 44 16 )
            (  2 30 37  9 )
            (  4 11 39 32 )
            ( 11 18 46 39 )
            ( 18 19 47 46 )
            ( 12 40 47 19 )
            (  5 33 40 12 )
            
        );
    }

    frontAndBack
    {
        type empty;
        faces
        (
            (  0  7  8  1 )
            (  2  9 10  3 )
            (  3 10 11  4 )
            (  5 12 13  6 )
            
            (  7 14 15  8 )
            (  9 16 17 10 )
            ( 10 17 18 11 )
            ( 12 19 20 13 )
            
            ( 14 21 22 15 )
            ( 15 22 23 16 )
            ( 16 23 24 17 )
            ( 17 24 25 18 )
            ( 18 25 26 19 )
            ( 19 26 27 20 )


            ( 28 29 36 35 )
            ( 30 31 38 37 )
            ( 31 32 39 38 )
            ( 33 34 41 40 )
            
            ( 35 36 43 42 )
            ( 37 38 45 44 )
            ( 38 39 46 45 )
            ( 40 41 48 47 )
            
            ( 42 43 50 49 )
            ( 43 44 51 50 )
            ( 44 45 52 51 )
            ( 45 46 53 52 )
            ( 46 47 54 53 )
            ( 47 48 55 54 )
        );
    }
);


// ************************************************************************* //
