/*--------------------------------*- C++ -*----------------------------------*\
| =========                 |                                                 |
| \\      /  F ield         | OpenFOAM: The Open Source CFD Toolbox           |
|  \\    /   O peration     | Version:  2312                                  |
|   \\  /    A nd           | Website:  www.openfoam.com                      |
|    \\/     M anipulation  |                                                 |
\*---------------------------------------------------------------------------*/
// * * * * * * * * * * * * * * * * * * * * * * * * * * * * * * * * * * * * * //
FoamFile
{
    version     2.0;
    format      ascii;
    class       dictionary;
    object      changeDictionaryDict;
}
// * * * * * * * * * * * * * * * * * * * * * * * * * * * * * * * * * * * * * //

//A seguinte declaração modifica o type da geometria. Aqui estou modificando de patch para wall

boundary
{
    walls
    {
        type            wall;
    }
        
    ground
    {
        type            wall;
    }
}

/*

//A seguinte declaração modifica as condições na pasta 0

dictionaryReplacement
{
    boundary
    {
        frontAndBack
        {
            type            wall;
        }
    }
}

*/

runTimeModifiable true;


// ************************************************************************* //
