/*--------------------------------*- C++ -*----------------------------------*\
| =========                 |                                                 |
| \\      /  F ield         | OpenFOAM: The Open Source CFD Toolbox           |
|  \\    /   O peration     | Version:  v2312                                 |
|   \\  /    A nd           | Website:  www.openfoam.com                      |
|    \\/     M anipulation  |                                                 |
\*---------------------------------------------------------------------------*/
FoamFile
{
    version     2.0;
    format      ascii;
    class       volScalarField;
    object      epsilon;
}
// * * * * * * * * * * * * * * * * * * * * * * * * * * * * * * * * * * * * * //

#include        "include/boundaryConditions"

dimensions      [0 2 -3 0 0 0 0];

internalField   uniform $TEpsilon;

boundaryField
{

    inlet
    {
        type            atmBoundaryLayerInletEpsilon;
        #include        "include/ABLConditions"
        value           uniform 0.0;         

    }
    
    "outlet|topWall"
    {
        type            zeroGradient;
    } 
    
    ground
    {
        type            epsilonWallFunction;
        Cmu             0.09;
        kappa           0.4;
        E               9.8;
        value           $internalField;

    }
    
    #include            "include/frontAndBack"  
}


// ************************************************************************* //
