/*--------------------------------*- C++ -*----------------------------------*\
| =========                 |                                                 |
| \\      /  F ield         | OpenFOAM: The Open Source CFD Toolbox           |
|  \\    /   O peration     | Version:  v2312                                 |
|   \\  /    A nd           | Website:  www.openfoam.com                      |
|    \\/     M anipulation  |                                                 |
\*---------------------------------------------------------------------------*/
FoamFile
{
    version     2.0;
    format      ascii;
    class       volScalarField;
    object      epsilon;
}
// * * * * * * * * * * * * * * * * * * * * * * * * * * * * * * * * * * * * * //

dimensions      [0 2 -3 0 0 0 0];

//epsilon 25;
//epsilon 15;
epsilon 10; 

internalField   uniform $epsilon;

boundaryField
{

    inlet
    {
        type            fixedValue;
        value           uniform $epsilon;
    }
    
    outlet
    {
        type            zeroGradient;
    }

    topWall
    {
        type            zeroGradient;
    }
    
    ground
    {
        type            epsilonWallFunction;
        value           uniform $epsilon;
    }
    
    frontAndBack
    {
        type            empty;
    }    
}


// ************************************************************************* //
