/*--------------------------------*- C++ -*----------------------------------*\
| =========                 |                                                 |
| \\      /  F ield         | OpenFOAM: The Open Source CFD Toolbox           |
|  \\    /   O peration     | Version:  v2312                                 |
|   \\  /    A nd           | Website:  www.openfoam.com                      |
|    \\/     M anipulation  |                                                 |
\*---------------------------------------------------------------------------*/
FoamFile
{
    version     2.0;
    format      ascii;
    class       volScalarField;
    object      k;
}
// * * * * * * * * * * * * * * * * * * * * * * * * * * * * * * * * * * * * * //

#include        "include/boundaryConditions"

dimensions      [0 2 -2 0 0 0 0];

internalField   uniform $TKE;

boundaryField
{

    inlet
    {
        type            atmBoundaryLayerInletK;
        #include        "include/ABLConditions"
        value           uniform 0.0; 
    }
    
    outlet
    {
        type            inletOutlet;
        inletValue      $internalField;
        value           $internalField;

    }

    topWall
    {
        type            zeroGradient;
    }
    
    ground
    {
        type            kqRWallFunction;
        value           uniform 0.0;
    }
    
    #include            "include/frontAndBack"   
}


// ************************************************************************* //
