/*--------------------------------*- C++ -*----------------------------------*\
| =========                 |                                                 |
| \\      /  F ield         | OpenFOAM: The Open Source CFD Toolbox           |
|  \\    /   O peration     | Version:  v2312                                 |
|   \\  /    A nd           | Website:  www.openfoam.com                      |
|    \\/     M anipulation  |                                                 |
\*---------------------------------------------------------------------------*/
FoamFile
{
    version     2.0;
    format      ascii;
    class       volVectorField;
    object      U;
}
// * * * * * * * * * * * * * * * * * * * * * * * * * * * * * * * * * * * * * //

#include        "include/boundaryConditions"

dimensions      [0 1 -1 0 0 0 0];

internalField   uniform $flowVelocity;

boundaryField
{

    inlet
    {
        type            atmBoundaryLayerInletVelocity;
        #include        "include/ABLConditions"
        value           uniform $flowVelocity; 

    }
    
    outlet
    {
        type            zeroGradient;
    }

    topWall
    {
        type            slip;
    }
    
    ground
    {
        type            noSlip;
    }
    
    #include            "include/frontAndBack"
 
}


// ************************************************************************* //
